C6H12O6
APtclcactv11201808313D 0   0.00000     0.00000
 
 24 24  0  0  1  0  0  0  0  0999 V2000
   -0.5999   -1.8712   -1.1518 O   0  0  0  0  0  0  0  0  0  0  0  0
   -0.5670   -1.5722    0.2452 C   0  0  2  0  0  0  0  0  0  0  0  0
   -0.8218   -2.4662    0.8143 H   0  0  0  0  0  0  0  0  0  0  0  0
   -1.5779   -0.4648    0.5542 C   0  0  2  0  0  0  0  0  0  0  0  0
   -1.5825   -0.2644    1.6256 H   0  0  0  0  0  0  0  0  0  0  0  0
   -2.8814   -0.8792    0.1404 O   0  0  0  0  0  0  0  0  0  0  0  0
   -1.1790    0.8058   -0.2026 C   0  0  1  0  0  0  0  0  0  0  0  0
   -1.2224    0.6198   -1.2758 H   0  0  0  0  0  0  0  0  0  0  0  0
   -2.0763    1.8652    0.1355 O   0  0  0  0  0  0  0  0  0  0  0  0
    0.2487    1.1952    0.1926 C   0  0  2  0  0  0  0  0  0  0  0  0
    0.2811    1.4292    1.2567 H   0  0  0  0  0  0  0  0  0  0  0  0
    0.6576    2.3388   -0.5604 O   0  0  0  0  0  0  0  0  0  0  0  0
    1.1891    0.0238   -0.1024 C   0  0  2  0  0  0  0  0  0  0  0  0
    1.1870   -0.1834   -1.1726 H   0  0  0  0  0  0  0  0  0  0  0  0
    0.7438   -1.1337    0.6080 O   0  0  0  0  0  0  0  0  0  0  0  0
    2.6075    0.3829    0.3450 C   0  0  0  0  0  0  0  0  0  0  0  0
    3.5057   -0.6615   -0.0353 O   0  0  0  0  0  0  0  0  0  0  0  0
    0.0173   -2.5656   -1.4201 H   0  0  0  0  0  0  0  0  0  0  0  0
   -3.1961   -1.6823    0.5775 H   0  0  0  0  0  0  0  0  0  0  0  0
   -3.0006    1.6825   -0.0823 H   0  0  0  0  0  0  0  0  0  0  0  0
    0.1018    3.1184   -0.4248 H   0  0  0  0  0  0  0  0  0  0  0  0
    2.9130    1.3155   -0.1295 H   0  0  0  0  0  0  0  0  0  0  0  0
    2.6274    0.5028    1.4282 H   0  0  0  0  0  0  0  0  0  0  0  0
    4.4252   -0.5007    0.2172 H   0  0  0  0  0  0  0  0  0  0  0  0
  1  2  1  0  0  0  0
  2  3  1  0  0  0  0
  2  4  1  0  0  0  0
  4  5  1  0  0  0  0
  4  6  1  0  0  0  0
  4  7  1  0  0  0  0
  7  8  1  0  0  0  0
  7  9  1  0  0  0  0
  7 10  1  0  0  0  0
 10 11  1  0  0  0  0
 10 12  1  0  0  0  0
 10 13  1  0  0  0  0
 13 14  1  0  0  0  0
 13 15  1  0  0  0  0
  2 15  1  0  0  0  0
 13 16  1  0  0  0  0
 16 17  1  0  0  0  0
  1 18  1  0  0  0  0
  6 19  1  0  0  0  0
  9 20  1  0  0  0  0
 12 21  1  0  0  0  0
 16 22  1  0  0  0  0
 16 23  1  0  0  0  0
 17 24  1  0  0  0  0
M  END
$$$$
