C12H22O11
APtclcactv11191816263D 0   0.00000     0.00000
 
 45 46  0  0  1  0  0  0  0  0999 V2000
    1.1268    0.0380   -0.1967 C   0  0  1  0  0  0  0  0  0  0  0  0
   -0.9470    1.1427   -0.6702 C   0  0  1  0  0  0  0  0  0  0  0  0
    2.1711    1.1499   -0.3361 C   0  0  1  0  0  0  0  0  0  0  0  0
    1.6577   -1.0331    0.7596 C   0  0  1  0  0  0  0  0  0  0  0  0
   -2.0482    1.9615    0.0084 C   0  0  1  0  0  0  0  0  0  0  0  0
    3.4894    0.5392   -0.8213 C   0  0  2  0  0  0  0  0  0  0  0  0
   -2.8936    1.0355    0.8883 C   0  0  2  0  0  0  0  0  0  0  0  0
   -3.4592   -0.0957    0.0240 C   0  0  1  0  0  0  0  0  0  0  0  0
   -2.3036   -0.8351   -0.6553 C   0  0  1  0  0  0  0  0  0  0  0  0
    3.9290   -0.5513    0.1591 C   0  0  1  0  0  0  0  0  0  0  0  0
    0.6458   -2.1765    0.8576 C   0  0  0  0  0  0  0  0  0  0  0  0
   -2.8634   -1.9284   -1.5675 C   0  0  0  0  0  0  0  0  0  0  0  0
    2.3290    2.8522   -1.4216 H   0  0  0  0  0  0  0  0  0  0  0  0
   -0.9019    3.6006    0.3254 H   0  0  0  0  0  0  0  0  0  0  0  0
    5.3544    1.2391   -1.1862 H   0  0  0  0  0  0  0  0  0  0  0  0
   -3.6825    2.5150    2.0241 H   0  0  0  0  0  0  0  0  0  0  0  0
   -4.9358   -0.6035    1.3136 H   0  0  0  0  0  0  0  0  0  0  0  0
    4.4486   -0.6050    2.1158 H   0  0  0  0  0  0  0  0  0  0  0  0
    0.5027   -3.8848    1.9357 H   0  0  0  0  0  0  0  0  0  0  0  0
   -2.0673   -3.4054   -2.7014 H   0  0  0  0  0  0  0  0  0  0  0  0
    1.7153    2.1178   -1.2834 O   0  0  0  0  0  0  0  0  0  0  0  0
   -1.4562    2.9798    0.8176 O   0  0  0  0  0  0  0  0  0  0  0  0
    4.4915    1.5558   -0.8857 O   0  0  0  0  0  0  0  0  0  0  0  0
   -3.9686    1.7772    1.4683 O   0  0  0  0  0  0  0  0  0  0  0  0
   -4.1902   -1.0062    0.8478 O   0  0  0  0  0  0  0  0  0  0  0  0
    4.1669    0.0298    1.4428 O   0  0  0  0  0  0  0  0  0  0  0  0
    1.0968   -3.1305    1.8211 O   0  0  0  0  0  0  0  0  0  0  0  0
   -1.7855   -2.6926   -2.1119 O   0  0  0  0  0  0  0  0  0  0  0  0
   -0.0862    0.5847    0.3246 O   0  0  0  0  0  0  0  0  0  0  0  0
   -1.5398    0.0893   -1.4326 O   0  0  0  0  0  0  0  0  0  0  0  0
    2.9002   -1.5373    0.2656 O   0  0  0  0  0  0  0  0  0  0  0  0
    0.9357   -0.4068   -1.1733 H   0  0  0  0  0  0  0  0  0  0  0  0
   -0.3685    1.7884   -1.3309 H   0  0  0  0  0  0  0  0  0  0  0  0
    2.3240    1.6297    0.6306 H   0  0  0  0  0  0  0  0  0  0  0  0
    1.8094   -0.5962    1.7467 H   0  0  0  0  0  0  0  0  0  0  0  0
   -2.6806    2.4215   -0.7509 H   0  0  0  0  0  0  0  0  0  0  0  0
    3.3471    0.1048   -1.8109 H   0  0  0  0  0  0  0  0  0  0  0  0
   -2.2717    0.6159    1.6790 H   0  0  0  0  0  0  0  0  0  0  0  0
   -4.1217    0.3217   -0.7343 H   0  0  0  0  0  0  0  0  0  0  0  0
   -1.6647   -1.2865    0.1038 H   0  0  0  0  0  0  0  0  0  0  0  0
    4.8445   -1.0188   -0.2035 H   0  0  0  0  0  0  0  0  0  0  0  0
   -0.3220   -1.7799    1.1644 H   0  0  0  0  0  0  0  0  0  0  0  0
    0.5487   -2.6600   -0.1145 H   0  0  0  0  0  0  0  0  0  0  0  0
   -3.5177   -2.5825   -0.9912 H   0  0  0  0  0  0  0  0  0  0  0  0
   -3.4299   -1.4704   -2.3782 H   0  0  0  0  0  0  0  0  0  0  0  0
  1 29  1  0  0  0  0
  2 29  1  0  0  0  0
  2 30  1  0  0  0  0
  9 30  1  0  0  0  0
  4 31  1  0  0  0  0
 10 31  1  0  0  0  0
  3 21  1  0  0  0  0
  5 22  1  0  0  0  0
  6 23  1  0  0  0  0
  7 24  1  0  0  0  0
  8 25  1  0  0  0  0
 10 26  1  0  0  0  0
 11 27  1  0  0  0  0
 12 28  1  0  0  0  0
  1  3  1  0  0  0  0
  1  4  1  0  0  0  0
  2  5  1  0  0  0  0
  3  6  1  0  0  0  0
  4 11  1  0  0  0  0
  5  7  1  0  0  0  0
  6 10  1  0  0  0  0
  7  8  1  0  0  0  0
  8  9  1  0  0  0  0
  9 12  1  0  0  0  0
 13 21  1  0  0  0  0
 14 22  1  0  0  0  0
 15 23  1  0  0  0  0
 16 24  1  0  0  0  0
 17 25  1  0  0  0  0
 18 26  1  0  0  0  0
 19 27  1  0  0  0  0
 20 28  1  0  0  0  0
  1 32  1  0  0  0  0
  2 33  1  0  0  0  0
  3 34  1  0  0  0  0
  4 35  1  0  0  0  0
  5 36  1  0  0  0  0
  6 37  1  0  0  0  0
  7 38  1  0  0  0  0
  8 39  1  0  0  0  0
  9 40  1  0  0  0  0
 10 41  1  0  0  0  0
 11 42  1  0  0  0  0
 11 43  1  0  0  0  0
 12 44  1  0  0  0  0
 12 45  1  0  0  0  0
M  END
$$$$
